---- qbsp / ericw-tools v0.18.1 ----
Input file: corruptrealmfinal.map
Output file: corruptrealmfinal.bsp

---- LoadMapFile ----
*** WARNING 06: No info_player_deathmatch entities in level
         8000 faces
         1379 brushes
          837 entities
           62 unique texnames
         1508 texinfo

Opened WAD: Q:/Workspace/GitHub/corrupt-realm-project/QuakeDev/wads/prototype_1_2.wad
Opened WAD: Q:/Workspace/GitHub/corrupt-realm-project/QuakeDev/wads/corrupt_realm.wad
Processing hull 0...
---- Brush_LoadEntity ----
         1317 brushes
         1509 planes
---- CSGFaces ----
         7628 brushfaces
         8048 csgfaces
         7101 mergedfaces
---- SolidBSP ----
         8343 split nodes
         3474 solid leafs
         4502 empty leafs
          368 water leafs
            0 detail leafs
            0 detail illusionary leafs
            0 detail fence leafs
            0 illusionary visblocker leafs
        21575 leaffaces
        19393 nodefaces
---- Portalize ----
         4870 vis leafs
         4870 vis clusters
        15948 vis portals
---- FillOutside ----
*** WARNING 10: Reached occupant at (-1008 -3392 248), no filling performed.
Leak file written to corruptrealmfinal.pts
---- MakeFaceEdges ----
---- GrowRegions ----
Processing hull 1...
Processing hull 2...
---- WriteBSPFile ----
Wrote corruptrealmfinal.bsp
         3098 planes            61960
        23916 vertexes         286992
         8673 nodes            208152
         1390 texinfo           55600
        19765 faces            395300
         9840 clipnodes         78720
         5169 leafs            144732
        21947 marksurfaces      43894
        78306 surfedges        313224
        50804 edges            203216
           71 textures         493748
              lightdata             0
              visdata               0
              entdata           49360

1.830 seconds elapsed
Peak memory usage: 88531882 (84.4M)
