---- qbsp / ericw-tools v0.18.1 ----
Input file: corruptrealm.map
Output file: corruptrealm.bsp

---- LoadMapFile ----
*** WARNING 06: No info_player_deathmatch entities in level
         4636 faces
          772 brushes
           70 entities
           10 unique texnames
           89 texinfo

Opened WAD: Q:/Workspace/GitHub/corrupt-realm-project/QuakeDev/wads/prototype_1_2.wad
Processing hull 0...
---- Brush_LoadEntity ----
          728 brushes
          902 planes
---- CSGFaces ----
         4372 brushfaces
         4755 csgfaces
         4374 mergedfaces
---- SolidBSP ----
         5007 split nodes
         2091 solid leafs
         2640 empty leafs
          277 water leafs
            0 detail leafs
            0 detail illusionary leafs
            0 detail fence leafs
            0 illusionary visblocker leafs
        18449 leaffaces
        16944 nodefaces
---- Portalize ----
         2917 vis leafs
         2917 vis clusters
         8419 vis portals
---- FillOutside ----
*** WARNING 10: Reached occupant at (-96 5952 392), no filling performed.
Leak file written to corruptrealm.pts
---- MakeFaceEdges ----
---- GrowRegions ----
Processing hull 1...
Processing hull 2...
---- WriteBSPFile ----
Wrote corruptrealm.bsp
         1096 planes            21920
        20586 vertexes         247032
         5229 nodes            125496
           85 texinfo            3400
        17208 faces            344160
         3749 clipnodes         29992
         3108 leafs             87024
        18713 marksurfaces      37426
        68701 surfedges        274804
        42606 edges            170424
           10 textures          64364
              lightdata             0
              visdata               0
              entdata            2994

0.910 seconds elapsed
Peak memory usage: 64821686 (61.8M)
