---- qbsp / ericw-tools v0.18.1 ----
Input file: corruptrealmfinal.map
Output file: corruptrealmfinal.bsp

---- LoadMapFile ----
*** WARNING 06: No info_player_deathmatch entities in level
         4956 faces
          824 brushes
          182 entities
           15 unique texnames
          139 texinfo

Opened WAD: Q:/Workspace/GitHub/corrupt-realm-project/QuakeDev/wads/prototype_1_2.wad
Processing hull 0...
---- Brush_LoadEntity ----
          777 brushes
         1104 planes
---- CSGFaces ----
         4674 brushfaces
         5527 csgfaces
         4985 mergedfaces
---- SolidBSP ----
         6222 split nodes
         2570 solid leafs
         3355 empty leafs
          298 water leafs
            0 detail leafs
            0 detail illusionary leafs
            0 detail fence leafs
            0 illusionary visblocker leafs
        17575 leaffaces
        16076 nodefaces
---- Portalize ----
         3653 vis leafs
         3653 vis clusters
        11510 vis portals
---- FillOutside ----
*** WARNING 10: Reached occupant at (-928 1120 216), no filling performed.
Leak file written to corruptrealmfinal.pts
---- MakeFaceEdges ----
---- GrowRegions ----
Processing hull 1...
*** WARNING 10: Reached occupant at (-1016 -3240 768), no filling performed.
Processing hull 2...
*** WARNING 10: Reached occupant at (-1016 -3240 768), no filling performed.
*** WARNING 16: Texture __TB_empty not found
---- WriteBSPFile ----
Wrote corruptrealmfinal.bsp
         2139 planes            42780
        19551 vertexes         234612
         6462 nodes            155088
          131 texinfo            5240
        16358 faces            327160
        11468 clipnodes         91744
         3862 leafs            108136
        17857 marksurfaces      35714
        65240 surfedges        260960
        41371 edges            165484
           15 textures          82224
              lightdata             0
              visdata               0
              entdata           10532

1.016 seconds elapsed
Peak memory usage: 70413278 (67.2M)
