---- qbsp / ericw-tools v0.18.1 ----
Input file: corruptrealm.map
Output file: corruptrealm.bsp

---- LoadMapFile ----
*** WARNING 06: No info_player_deathmatch entities in level
         4636 faces
          772 brushes
           70 entities
           10 unique texnames
           89 texinfo

Opened WAD: Q:/Workspace/GitHub/corrupt-realm-project/QuakeDev/wads/prototype_1_2.wad
Processing hull 0...
---- Brush_LoadEntity ----
          728 brushes
          902 planes
---- CSGFaces ----
         4372 brushfaces
         4755 csgfaces
         4374 mergedfaces
---- SolidBSP ----
         5133 split nodes
         2158 solid leafs
         2679 empty leafs
          297 water leafs
            0 detail leafs
            0 detail illusionary leafs
            0 detail fence leafs
            0 illusionary visblocker leafs
        14050 leaffaces
        12741 nodefaces
---- Portalize ----
         2976 vis leafs
         2976 vis clusters
         8909 vis portals
---- FillOutside ----
*** WARNING 10: Reached occupant at (-1784 798 -22), no filling performed.
Leak file written to corruptrealm.pts
---- MakeFaceEdges ----
---- GrowRegions ----
Processing hull 1...
Processing hull 2...
---- WriteBSPFile ----
Wrote corruptrealm.bsp
         1497 planes            29940
        15584 vertexes         187008
         5356 nodes            128544
           85 texinfo            3400
        13005 faces            260100
         1082 clipnodes          8656
         3167 leafs             88676
        14314 marksurfaces      28628
        51882 surfedges        207528
        33105 edges            132420
           10 textures          64364
              lightdata             0
              visdata               0
              entdata            3097

1.415 seconds elapsed
Peak memory usage: 49665960 (47.4M)
