---- qbsp / ericw-tools v0.18.1 ----
Input file: corruptrealmfinal.map
Output file: corruptrealmfinal.bsp

---- LoadMapFile ----
*** WARNING 06: No info_player_deathmatch entities in level
         5022 faces
          835 brushes
          199 entities
           25 unique texnames
          170 texinfo

Opened WAD: Q:/Workspace/GitHub/corrupt-realm-project/QuakeDev/wads/prototype_1_2.wad
Opened WAD: Q:/Workspace/GitHub/corrupt-realm-project/QuakeDev/wads/corrupt_realm.wad
Processing hull 0...
---- Brush_LoadEntity ----
          779 brushes
         1104 planes
---- CSGFaces ----
         4686 brushfaces
         5532 csgfaces
         4992 mergedfaces
---- SolidBSP ----
         6222 split nodes
         2570 solid leafs
         3355 empty leafs
          298 water leafs
            0 detail leafs
            0 detail illusionary leafs
            0 detail fence leafs
            0 illusionary visblocker leafs
        17572 leaffaces
        16072 nodefaces
---- Portalize ----
         3653 vis leafs
         3653 vis clusters
        11510 vis portals
---- FillOutside ----
*** WARNING 10: Reached occupant at (-928 1120 216), no filling performed.
Leak file written to corruptrealmfinal.pts
---- MakeFaceEdges ----
---- GrowRegions ----
Processing hull 1...
*** WARNING 10: Reached occupant at (-856 -3056 424), no filling performed.
Processing hull 2...
*** WARNING 10: Reached occupant at (-856 -3056 424), no filling performed.
---- WriteBSPFile ----
Wrote corruptrealmfinal.bsp
         2180 planes            43600
        19647 vertexes         235764
         6516 nodes            156384
          158 texinfo            6320
        16408 faces            328160
        11576 clipnodes         92608
         3916 leafs            109648
        17908 marksurfaces      35816
        65440 surfedges        261760
        41503 edges            166012
           25 textures         183344
              lightdata             0
              visdata               0
              entdata           12287

0.959 seconds elapsed
Peak memory usage: 70553240 (67.3M)
