---- qbsp / ericw-tools v0.18.1 ----
Input file: corruptrealmfinal.map
Output file: corruptrealmfinal.bsp

---- LoadMapFile ----
*** WARNING 06: No info_player_deathmatch entities in level
         4818 faces
          801 brushes
          174 entities
           14 unique texnames
          136 texinfo

Opened WAD: Q:/Workspace/GitHub/corrupt-realm-project/QuakeDev/wads/prototype_1_2.wad
Processing hull 0...
---- Brush_LoadEntity ----
          755 brushes
         1043 planes
---- CSGFaces ----
         4542 brushfaces
         5347 csgfaces
         4795 mergedfaces
---- SolidBSP ----
         5954 split nodes
         2484 solid leafs
         3174 empty leafs
          297 water leafs
            0 detail leafs
            0 detail illusionary leafs
            0 detail fence leafs
            0 illusionary visblocker leafs
        17141 leaffaces
        15714 nodefaces
---- Portalize ----
         3471 vis leafs
         3471 vis clusters
        10779 vis portals
---- FillOutside ----
*** WARNING 10: Reached occupant at (-672 1120 216), no filling performed.
Leak file written to corruptrealmfinal.pts
---- MakeFaceEdges ----
---- GrowRegions ----
Processing hull 1...
*** WARNING 10: Reached occupant at (-8 -3240 552), no filling performed.
Processing hull 2...
*** WARNING 10: Reached occupant at (-8 -3240 552), no filling performed.
---- WriteBSPFile ----
Wrote corruptrealmfinal.bsp
         1911 planes            38220
        19100 vertexes         229200
         6188 nodes            148512
          128 texinfo            5120
        15990 faces            319800
        10914 clipnodes         87312
         3674 leafs            102872
        17417 marksurfaces      34834
        63778 surfedges        255112
        40392 edges            161568
           14 textures          82220
              lightdata             0
              visdata               0
              entdata            9641

1.463 seconds elapsed
Peak memory usage: 68088738 (64.9M)
