---- qbsp / ericw-tools v0.18.1 ----
Input file: corruptrealmfinal.map
Output file: corruptrealmfinal.bsp

---- LoadMapFile ----
*** WARNING 06: No info_player_deathmatch entities in level
         8030 faces
         1384 brushes
          842 entities
           62 unique texnames
         1517 texinfo

Opened WAD: Q:/Workspace/GitHub/corrupt-realm-project/QuakeDev/wads/prototype_1_2.wad
Opened WAD: Q:/Workspace/GitHub/corrupt-realm-project/QuakeDev/wads/corrupt_realm.wad
Processing hull 0...
---- Brush_LoadEntity ----
         1317 brushes
         1509 planes
---- CSGFaces ----
         7628 brushfaces
         8048 csgfaces
         7101 mergedfaces
---- SolidBSP ----
         8343 split nodes
         3474 solid leafs
         4502 empty leafs
          368 water leafs
            0 detail leafs
            0 detail illusionary leafs
            0 detail fence leafs
            0 illusionary visblocker leafs
        21575 leaffaces
        19393 nodefaces
---- Portalize ----
         4870 vis leafs
         4870 vis clusters
        15948 vis portals
---- FillOutside ----
*** WARNING 10: Reached occupant at (-1008 -3392 248), no filling performed.
Leak file written to corruptrealmfinal.pts
---- MakeFaceEdges ----
---- GrowRegions ----
Processing hull 1...
Processing hull 2...
---- WriteBSPFile ----
Wrote corruptrealmfinal.bsp
         3114 planes            62280
        23968 vertexes         287616
         8703 nodes            208872
         1399 texinfo           55960
        19807 faces            396140
         9900 clipnodes         79200
         5199 leafs            145572
        21989 marksurfaces      43978
        78474 surfedges        313896
        50888 edges            203552
           71 textures         493748
              lightdata             0
              visdata               0
              entdata           49471

1.571 seconds elapsed
Peak memory usage: 88615998 (84.5M)
