---- qbsp / ericw-tools v0.18.1 ----
Input file: corruptrealm.map
Output file: corruptrealm.bsp

---- LoadMapFile ----
*** WARNING 06: No info_player_deathmatch entities in level
         4636 faces
          772 brushes
           70 entities
           10 unique texnames
          192 texinfo

Opened WAD: Q:/Workspace/GitHub/corrupt-realm-project/QuakeDev/wads/prototype_1_2.wad
Processing hull 0...
---- Brush_LoadEntity ----
          728 brushes
          902 planes
---- CSGFaces ----
         4372 brushfaces
         4785 csgfaces
         4443 mergedfaces
---- SolidBSP ----
         5029 split nodes
         2129 solid leafs
         2629 empty leafs
          272 water leafs
            0 detail leafs
            0 detail illusionary leafs
            0 detail fence leafs
            0 illusionary visblocker leafs
        18182 leaffaces
        16903 nodefaces
---- Portalize ----
         2901 vis leafs
         2901 vis clusters
         8643 vis portals
---- FillOutside ----
*** WARNING 10: Reached occupant at (1538 790 -22), no filling performed.
Leak file written to corruptrealm.pts
---- MakeFaceEdges ----
---- GrowRegions ----
Processing hull 1...
*** WARNING 12: New portal was clipped away in CutNodePortals_r near (2079.929 2905.671 -168.249)
*** WARNING 12: New portal was clipped away in CutNodePortals_r near (2072.533 2873.671 -171.947)
*** WARNING 12: New portal was clipped away in CutNodePortals_r near (2072.533 2873.671 -175.644)
*** WARNING 12: New portal was clipped away in CutNodePortals_r near (2057.742 2873.671 -179.342)
*** WARNING 12: New portal was clipped away in CutNodePortals_r near (2087.324 2799.716 -168.249)
*** WARNING 12: New portal was clipped away in CutNodePortals_r near (2072.533 2799.716 -171.947)
*** WARNING 12: New portal was clipped away in CutNodePortals_r near (2072.533 2799.716 -175.644)
*** WARNING 12: New portal was clipped away in CutNodePortals_r near (2057.742 2799.716 -179.342)
Processing hull 2...
*** WARNING 12: New portal was clipped away in CutNodePortals_r near (2095.929 2921.671 -200.249)
*** WARNING 12: New portal was clipped away in CutNodePortals_r near (2095.929 2857.671 -203.947)
*** WARNING 12: New portal was clipped away in CutNodePortals_r near (2081.138 2921.671 -207.644)
*** WARNING 12: New portal was clipped away in CutNodePortals_r near (2081.138 2857.671 -211.342)
*** WARNING 12: New portal was clipped away in CutNodePortals_r near (2103.324 2783.716 -200.249)
*** WARNING 12: New portal was clipped away in CutNodePortals_r near (2095.929 2783.716 -203.947)
*** WARNING 12: New portal was clipped away in CutNodePortals_r near (2081.138 2847.716 -207.644)
*** WARNING 12: New portal was clipped away in CutNodePortals_r near (2081.138 2783.716 -211.342)
---- WriteBSPFile ----
Wrote corruptrealm.bsp
         1497 planes            29940
        20581 vertexes         246972
         5251 nodes            126024
          187 texinfo            7480
        17167 faces            343340
         1044 clipnodes          8352
         3092 leafs             86576
        18446 marksurfaces      36892
        68503 surfedges        274012
        42555 edges            170220
           10 textures          64364
              lightdata             0
              visdata               0
              entdata            3089

1.172 seconds elapsed
Peak memory usage: 62477528 (59.6M)
