---- qbsp / ericw-tools v0.18.1 ----
Input file: corruptrealmfinal.map
Output file: corruptrealmfinal.bsp

---- LoadMapFile ----
*** WARNING 06: No info_player_deathmatch entities in level
         5010 faces
          833 brushes
          199 entities
           17 unique texnames
          145 texinfo

Opened WAD: Q:/Workspace/GitHub/corrupt-realm-project/QuakeDev/wads/prototype_1_2.wad
Opened WAD: Q:/Workspace/GitHub/corrupt-realm-project/QuakeDev/wads/corrupt_realm.wad
Processing hull 0...
---- Brush_LoadEntity ----
          777 brushes
         1104 planes
---- CSGFaces ----
         4674 brushfaces
         5527 csgfaces
         4985 mergedfaces
---- SolidBSP ----
         6222 split nodes
         2570 solid leafs
         3355 empty leafs
          298 water leafs
            0 detail leafs
            0 detail illusionary leafs
            0 detail fence leafs
            0 illusionary visblocker leafs
        17575 leaffaces
        16076 nodefaces
---- Portalize ----
         3653 vis leafs
         3653 vis clusters
        11510 vis portals
---- FillOutside ----
*** WARNING 10: Reached occupant at (-928 1120 216), no filling performed.
Leak file written to corruptrealmfinal.pts
---- MakeFaceEdges ----
---- GrowRegions ----
Processing hull 1...
*** WARNING 10: Reached occupant at (-856 -3056 424), no filling performed.
Processing hull 2...
*** WARNING 10: Reached occupant at (-856 -3056 424), no filling performed.
---- WriteBSPFile ----
Wrote corruptrealmfinal.bsp
         2180 planes            43600
        19623 vertexes         235476
         6516 nodes            156384
          137 texinfo            5480
        16412 faces            328240
        11576 clipnodes         92608
         3916 leafs            109648
        17911 marksurfaces      35822
        65456 surfedges        261824
        41479 edges            165916
           17 textures         114992
              lightdata             0
              visdata               0
              entdata           12287

1.024 seconds elapsed
Peak memory usage: 70533886 (67.3M)
