---- qbsp / ericw-tools v0.18.1 ----
Input file: corruptrealmfinal.map
Output file: corruptrealmfinal.bsp

---- LoadMapFile ----
*** WARNING 06: No info_player_deathmatch entities in level
         8228 faces
         1417 brushes
          849 entities
           62 unique texnames
         1708 texinfo

Opened WAD: Q:/Workspace/GitHub/corrupt-realm-project/QuakeDev/wads/corrupt_realm.wad
Processing hull 0...
---- Brush_LoadEntity ----
         1355 brushes
         1633 planes
---- CSGFaces ----
         7856 brushfaces
         8388 csgfaces
         7416 mergedfaces
---- SolidBSP ----
         8814 split nodes
         3635 solid leafs
         4791 empty leafs
          389 water leafs
            0 detail leafs
            0 detail illusionary leafs
            0 detail fence leafs
            0 illusionary visblocker leafs
        22454 leaffaces
        20266 nodefaces
---- Portalize ----
         5180 vis leafs
         5180 vis clusters
        17201 vis portals
---- FillOutside ----
*** WARNING 10: Reached occupant at (-1008 -3392 248), no filling performed.
Leak file written to corruptrealmfinal.pts
---- MakeFaceEdges ----
---- GrowRegions ----
Processing hull 1...
*** WARNING 10: Reached occupant at (-696 -248 860), no filling performed.
Processing hull 2...
*** WARNING 10: Reached occupant at (-696 -248 860), no filling performed.
*** WARNING 16: Texture 32_brown_3 not found
*** WARNING 16: Texture 32_grey_3 not found
*** WARNING 16: Texture *64_water1_2 not found
*** WARNING 16: Texture 32_grey_2 not found
*** WARNING 16: Texture 32_green_2 not found
*** WARNING 16: Texture 32_brown_2 not found
*** WARNING 16: Texture *waterskip not found
*** WARNING 16: Texture 32_honey_2 not found
*** WARNING 16: Texture 32_gold_2 not found
---- WriteBSPFile ----
Wrote corruptrealmfinal.bsp
         3586 planes            71720
        25034 vertexes         300408
         9144 nodes            219456
         1574 texinfo           62960
        20642 faces            412840
        17902 clipnodes        143216
         5479 leafs            153412
        22830 marksurfaces      45660
        81798 surfedges        327192
        53303 edges            213212
           71 textures         472988
              lightdata             0
              visdata               0
              entdata           49631

1.267 seconds elapsed
Peak memory usage: 99629120 (95.0M)
