---- qbsp / ericw-tools v0.18.1 ----
Input file: corruptrealmfinal.map
Output file: corruptrealmfinal.bsp

---- LoadMapFile ----
*** WARNING 06: No info_player_deathmatch entities in level
         4746 faces
          789 brushes
          125 entities
           11 unique texnames
          128 texinfo

Opened WAD: Q:/Workspace/GitHub/corrupt-realm-project/QuakeDev/wads/prototype_1_2.wad
Processing hull 0...
---- Brush_LoadEntity ----
          745 brushes
         1016 planes
---- CSGFaces ----
         4482 brushfaces
         5237 csgfaces
         4709 mergedfaces
---- SolidBSP ----
         5784 split nodes
         2384 solid leafs
         3111 empty leafs
          290 water leafs
            0 detail leafs
            0 detail illusionary leafs
            0 detail fence leafs
            0 illusionary visblocker leafs
        16953 leaffaces
        15432 nodefaces
---- Portalize ----
         3401 vis leafs
         3401 vis clusters
        10463 vis portals
---- FillOutside ----
*** WARNING 10: Reached occupant at (-1696 1408 32), no filling performed.
Leak file written to corruptrealmfinal.pts
---- MakeFaceEdges ----
---- GrowRegions ----
Processing hull 1...
*** WARNING 10: Reached occupant at (-8 -3240 552), no filling performed.
Processing hull 2...
*** WARNING 10: Reached occupant at (-8 -3240 552), no filling performed.
---- WriteBSPFile ----
Wrote corruptrealmfinal.bsp
         1800 planes            36000
        18746 vertexes         224952
         6006 nodes            144144
          123 texinfo            4920
        15696 faces            313920
        10920 clipnodes         87360
         3592 leafs            100576
        17217 marksurfaces      34434
        62606 surfedges        250424
        39656 edges            158624
           11 textures          65768
              lightdata             0
              visdata               0
              entdata            5721

0.840 seconds elapsed
Peak memory usage: 67289462 (64.2M)
