---- qbsp / ericw-tools v0.18.1 ----
Input file: testlevel.map
Output file: testlevel.bsp

---- LoadMapFile ----
*** WARNING 06: No info_player_deathmatch entities in level
          282 faces
           47 brushes
            2 entities
            7 unique texnames
           70 texinfo

Opened WAD: Q:/Workspace/GitHub/corrupt-realm-project/QuakeDev/wads/prototype_1_2.wad
Opened WAD: Q:/Workspace/GitHub/corrupt-realm-project/QuakeDev/wads/corrupt_realm.wad
Processing hull 0...
---- Brush_LoadEntity ----
           47 brushes
          106 planes
---- CSGFaces ----
          282 brushfaces
          305 csgfaces
          290 mergedfaces
---- SolidBSP ----
          347 split nodes
          107 solid leafs
          241 empty leafs
            0 water leafs
            0 detail leafs
            0 detail illusionary leafs
            0 detail fence leafs
            0 illusionary visblocker leafs
          625 leaffaces
          602 nodefaces
---- Portalize ----
          241 vis leafs
          241 vis clusters
          719 vis portals
---- FillOutside ----
*** WARNING 10: Reached occupant at (-272 16 24), no filling performed.
Leak file written to testlevel.pts
---- MakeFaceEdges ----
---- GrowRegions ----
Processing hull 1...
*** WARNING 19: No entities in empty space -- no filling performed (hull 1)
Processing hull 2...
*** WARNING 19: No entities in empty space -- no filling performed (hull 2)
---- WriteBSPFile ----
Wrote testlevel.bsp
          252 planes             5040
          761 vertexes           9132
          347 nodes              8328
           69 texinfo            2760
          602 faces             12040
          824 clipnodes          6592
          242 leafs              6776
          625 marksurfaces       1250
         2406 surfedges          9624
         1570 edges              6280
            7 textures           9832
              lightdata             0
              visdata               0
              entdata             244

0.127 seconds elapsed
Peak memory usage: 3873786 (3.7M)
