---- qbsp / ericw-tools v0.18.1 ----
Input file: miniaturetribblesmap.map
Output file: miniaturetribblesmap.bsp

---- LoadMapFile ----
*** WARNING 05: No info_player_start entity in level
            6 faces
            1 brushes
            2 entities
            1 unique texnames
            3 texinfo

Opened WAD: E:/TempWorkspace/GitHub/miniature-tribble/wads/rogue.wad
Opened WAD: E:/TempWorkspace/GitHub/miniature-tribble/wads/prototype_1_2.wad
Processing hull 0...
---- Brush_LoadEntity ----
            1 brushes
            6 planes
---- CSGFaces ----
            6 brushfaces
            6 csgfaces
            6 mergedfaces
---- SolidBSP ----
            6 split nodes
            1 solid leafs
            6 empty leafs
            0 water leafs
            0 detail leafs
            0 detail illusionary leafs
            0 detail fence leafs
            0 illusionary visblocker leafs
           96 leaffaces
           96 nodefaces
---- Portalize ----
            6 vis leafs
            6 vis clusters
           12 vis portals
---- FillOutside ----
*** WARNING 10: Reached occupant at (592 416 56), no filling performed.
Leak file written to miniaturetribblesmap.pts
---- MakeFaceEdges ----
---- GrowRegions ----
Processing hull 1...
*** WARNING 19: No entities in empty space -- no filling performed (hull 1)
Processing hull 2...
*** WARNING 19: No entities in empty space -- no filling performed (hull 2)
---- WriteBSPFile ----
Wrote miniaturetribblesmap.bsp
           17 planes              340
          118 vertexes           1416
            6 nodes               144
            3 texinfo             120
           96 faces              1920
           12 clipnodes            96
            7 leafs               196
           96 marksurfaces        192
          384 surfedges          1536
          217 edges               868
            1 textures            388
              lightdata             0
              visdata               0
              entdata             223

0.030 seconds elapsed
Peak memory usage: 302356 (295.3k)
